/*--------------------------------*- C++ -*----------------------------------*\
| =========                 |                                                 |
| \\      /  F ield         | OpenFOAM: The Open Source CFD Toolbox           |
|  \\    /   O peration     | Version:  4.0                                   |
|   \\  /    A nd           | Web:      www.OpenFOAM.org                      |
|    \\/     M anipulation  |                                                 |
\*---------------------------------------------------------------------------*/
FoamFile
{
    version     2.0;
    format      ascii;
    class       extendedFeatureEdgeMesh;
    location    "constant/extendedFeatureEdgeMesh";
    object      cube.extendedFeatureEdgeMesh;
}
// * * * * * * * * * * * * * * * * * * * * * * * * * * * * * * * * * * * * * //

// points
8((1 0 1) (0 0 0) (1 0 0) (0 0 1) (1 1 1) (0 1 1) (1 1 0) (0 1 0))
// edges

12
(
(1 2)
(0 3)
(4 5)
(6 7)
(2 0)
(3 1)
(5 3)
(0 4)
(4 6)
(7 5)
(1 7)
(6 2)
)

// concaveStart mixedStart nonFeatureStart
0 0 8
// internalStart flatStart openStart multipleStart
4 4 4 12
// normals
8((0 -1 -0) (-0 -1 0) (0 0 1) (0 0 1) (0 1 0) (0 1 0) (-0 0 -1) (0 -0 -1))
// normal volume types

8
(
0
0
0
0
0
0
0
0
)

// normalDirections

12
(
2(1 -1)
2(1 -1)
2(1 -1)
2(1 -1)
1(1)
1(1)
1(1)
1(1)
1(1)
1(1)
1(1)
1(1)
)

// edgeNormals

12
(
2(0 7)
2(1 3)
2(2 5)
2(4 6)
1(0)
1(1)
1(2)
1(3)
1(4)
1(5)
1(6)
1(7)
)

// featurePointNormals

8
(
2(1 3)
2(0 7)
2(0 7)
2(1 3)
2(2 5)
2(2 5)
2(4 6)
2(4 6)
)

// featurePointEdges

8
(
3(1 4 7)
3(0 5 10)
3(0 4 11)
3(1 5 6)
3(2 7 8)
3(2 6 9)
3(3 8 11)
3(3 9 10)
)

// regionEdges
8(4 5 6 7 8 9 10 11)


// ************************************************************************* //
