/*--------------------------------*- C++ -*----------------------------------*\
| =========                 |                                                 |
| \\      /  F ield         | OpenFOAM: The Open Source CFD Toolbox           |
|  \\    /   O peration     | Version:  4.0                                   |
|   \\  /    A nd           | Web:      www.OpenFOAM.org                      |
|    \\/     M anipulation  |                                                 |
\*---------------------------------------------------------------------------*/
FoamFile
{
    version     2.0;
    format      ascii;
    class       extendedFeatureEdgeMesh;
    location    "constant/extendedFeatureEdgeMesh";
    object      sphere.extendedFeatureEdgeMesh;
}
// * * * * * * * * * * * * * * * * * * * * * * * * * * * * * * * * * * * * * //

// points
6((0.5 0.5 0.75) (0.5 0.5 0.25) (0.4993987 0.5003214 0.2500009) (0.4993987 0.5003214 0.7499991) (0.5217889 0.5 0.2509513) (0.5217889 0.5 0.7490487))
// edges
8((1 4) (5 0) 2{1} 2{0} (2 1) (1 2) (3 0) (0 3))
// concaveStart mixedStart nonFeatureStart
0 0 2
// internalStart flatStart openStart multipleStart
2 2 2 4
// normals
10((0 0 0) (0.001774664 0.0005383608 0.9999983) (0.0005383608 -0.001774664 0.9999983) (0 0 0) (0.001774664 0.0005383608 -0.9999983) (0.0005383608 -0.001774664 -0.9999983) (-0.0414503 0.3113176 0.9494015) (-0.04145047 -0.311306 0.9494053) (-0.0414498 0.3113529 -0.9493899) (-0.04144996 -0.3113414 -0.9493937))
// normal volume types

10
(
0
0
0
0
0
0
0
0
0
0
)

// normalDirections

8
(
2(1 -1)
2(1 -1)
1(-1)
1(-1)
3(-1 -1 1)
3(-1 1 -1)
3(-1 1 -1)
3(-1 -1 1)
)

// edgeNormals

8
(
2(6 7)
2(8 9)
1(0)
1(3)
3(0 1 2)
3(0 1 2)
3(3 4 5)
3(3 4 5)
)

// featurePointNormals

2
(
5(8 9 3 4 5)
5(6 7 0 1 2)
)

// featurePointEdges

2
(
5(6 7 1 3 3)
5(4 5 0 2 2)
)

// regionEdges
6(4 5 6 7 2 3)


// ************************************************************************* //
