/*--------------------------------*- C++ -*----------------------------------*\
| =========                 |                                                 |
| \\      /  F ield         | OpenFOAM: The Open Source CFD Toolbox           |
|  \\    /   O peration     | Version:  4.0                                   |
|   \\  /    A nd           | Web:      www.OpenFOAM.org                      |
|    \\/     M anipulation  |                                                 |
\*---------------------------------------------------------------------------*/
FoamFile
{
    version     2.0;
    format      ascii;
    class       extendedFeatureEdgeMesh;
    location    "constant/extendedFeatureEdgeMesh";
    object      volume.extendedFeatureEdgeMesh;
}
// * * * * * * * * * * * * * * * * * * * * * * * * * * * * * * * * * * * * * //

// points

12
(
(0 0 1)
(0 1 1)
(0 1 0)
(0 0 0)
(1 0 1)
(1 0 0)
(1 1 1)
(1 1 0)
(0.5 0.5 0.25)
(0.531333 0.5 0.251971)
(0.531333 0.5 0.748029)
(0.5 0.5 0.75)
)

// edges

14
(
(0 1)
(1 2)
(3 0)
(2 3)
(3 5)
(5 4)
(4 0)
(6 1)
(4 6)
(7 2)
(6 7)
(7 5)
(8 9)
(10 11)
)

// concaveStart mixedStart nonFeatureStart
8 8 8
// internalStart flatStart openStart multipleStart
14 14 14 14
// normals

16
(
(-1 0 0)
(0 0 1)
(0 1 0)
(-1 0 0)
(-0 -1 0)
(-0 0 -1)
(0 -1 -0)
(0 -0 -1)
(1 0 0)
(0 0 1)
(1 -0 0)
(0 1 0)
(-0.05924392 0.3309158 0.9417988)
(-0.05924378 -0.3309221 0.9417965)
(-0.05924352 0.3309337 -0.9417925)
(-0.05924338 -0.33094 -0.9417903)
)

// normal volume types

16
(
0
0
0
0
0
0
0
0
0
0
0
0
0
0
0
0
)

// normalDirections

14
(
2(1 -1)
2(1 -1)
2(1 -1)
2(1 -1)
2(1 -1)
2(1 -1)
2(1 -1)
2(1 -1)
2(1 -1)
2(1 -1)
2(1 -1)
2(1 -1)
2(1 -1)
2(1 -1)
)

// edgeNormals

14
(
2(0 1)
2(0 2)
2(3 4)
2(3 5)
2(6 7)
2(6 8)
2(4 9)
2(1 2)
2(9 10)
2(11 5)
2(11 10)
2(7 8)
2(12 13)
2(14 15)
)

// featurePointNormals

8
(
3(0 1 4)
3(0 1 2)
3(0 2 5)
3(3 4 5)
3(6 8 9)
3(6 7 8)
3(1 2 10)
3(11 5 10)
)

// featurePointEdges

8
(
3(2 6 0)
3(0 7 1)
3(3 9 1)
3(2 4 3)
3(6 8 5)
3(4 11 5)
3(8 10 7)
3(9 11 10)
)

// regionEdges
0()


// ************************************************************************* //
