/*--------------------------------*- C++ -*----------------------------------*\
| =========                 |                                                 |
| \\      /  F ield         | OpenFOAM: The Open Source CFD Toolbox           |
|  \\    /   O peration     | Version:  5.x                                   |
|   \\  /    A nd           | Web:      www.OpenFOAM.org                      |
|    \\/     M anipulation  |                                                 |
\*---------------------------------------------------------------------------*/
FoamFile
{
    version     2.0;
    format      ascii;
    class       volVectorField;
    location    "0";
    object      U;
}
// * * * * * * * * * * * * * * * * * * * * * * * * * * * * * * * * * * * * * //

dimensions      [0 1 -1 0 0 0 0];

internalField   uniform (0 0 0);

boundaryField
{
    in
    {
        type            fixedValue;
        value           uniform (0.5 0 0);
//---------------------------------------------------------------------------------------START codeStream 
/*
        value           #codeStream
        {
            codeInclude	//files needed for automatic compilation
            #{
                #include "fvCFD.H"
            #};

            codeOptions	//options for compilation
            #{
                -I$(LIB_SRC)/finiteVolume/lnInclude \
                -I$(LIB_SRC)/meshTools/lnInclude \
            #};

 
    	    codeLibs	//libs needed to visualize BC in paraview
    	    #{
        		-lmeshTools \
        		-lfiniteVolume
    	    #};

            code	//personal code
            #{
                const IOdictionary& d = static_cast<const IOdictionary&>
		(
                    dict.parent().parent()
                ); // /?\ something related to topoSetDict

                const fvMesh& mesh = refCast<const fvMesh>(d.db());
                const label id = mesh.boundary().findPatchID("in");
                const fvPatch& patch = mesh.boundary()[id];

                vectorField U(patch.size(), vector(0, 0, 0));

                //const scalar pi = constant::mathematical::pi;	
                //const scalar a  	= 	1;
                const scalar s = 0.5;

                forAll(U, i)
                {
                    const scalar x = patch.Cf()[i][0];
                    const scalar y = patch.Cf()[i][1];
                    const scalar z = patch.Cf()[i][2];

                    U[i] = vector(pow(z/s, 2) + pow((y-s)/s,2) - 1.0, 0, 0);
                }

                U.writeEntry("", os);
            #};
        };
*/	
//---------------------------------------------------------------------------------------END codeStream
    }
    out
    {
        type            zeroGradient;
    }
    shell
    {
        type            zeroGradient;
    }
}


// ************************************************************************* //
