/*--------------------------------*- C++ -*----------------------------------*\
| =========                 |                                                 |
| \\      /  F ield         | OpenFOAM: The Open Source CFD Toolbox           |
|  \\    /   O peration     | Version:  5.x                                   |
|   \\  /    A nd           | Web:      www.OpenFOAM.org                      |
|    \\/     M anipulation  |                                                 |
\*---------------------------------------------------------------------------*/
FoamFile
{
    version     2.0;
    format      ascii;
    class       volVectorField;
    location    "0";
    object      U;
}
// * * * * * * * * * * * * * * * * * * * * * * * * * * * * * * * * * * * * * //

dimensions      [0 1 -1 0 0 0 0];

internalField   uniform (0 0 0);

boundaryField
{
    in
    {
	//#include "codeStream/boundaryFieldU";
        type            fixedValue;		//set it off if using codeStream
        value           uniform (0.5 0 0);	//set it off if using codeStream
    }
    out
    {
        type            zeroGradient;
    }
    shell
    {
        type            zeroGradient;
    }
}


// ************************************************************************* //
